Version 4
SHEET 1 1872 680
WIRE 592 144 176 144
WIRE 592 176 592 144
WIRE 176 240 176 144
WIRE 176 272 176 240
WIRE 592 320 592 256
WIRE 592 384 592 320
WIRE 176 480 176 352
WIRE 592 480 592 448
WIRE 592 480 176 480
WIRE 176 512 176 480
FLAG 176 512 0
FLAG 592 320 OUT
FLAG 176 240 IN
SYMBOL Misc/signal 176 256 R0
SYMATTR InstName V1
SYMATTR Value PULSE(0 2.3 1m 1n 1n 25m 50m)
SYMBOL cap 576 384 R0
SYMATTR InstName C1
SYMATTR Value 68n
SYMATTR SpiceLine mfg="   ---" pn="   ---" type="   ---"
SYMBOL res 576 160 R0
SYMATTR InstName R1
SYMATTR Value 68k
TEXT 704 144 Left 2 !.tran 0 100m\n*\n.meas vin_high   AVG V(in) FROM 1.5m TO 5m\n.meas t_tau  WHEN V(out)={vin_high*(1-exp(-1))} RISE=1\n.meas t_half_time WHEN V(out)={vin_high*0.5} RISE=1\n*\n.meas t_tau_ms    PARAM {t_tau*1e3}\n.meas t_half_time_ms PARAM {t_half_time*1e3}
