Version 4
SHEET 1 1872 680
WIRE 592 144 176 144
WIRE 592 176 592 144
WIRE 176 240 176 144
WIRE 176 272 176 240
WIRE 592 320 592 256
WIRE 592 368 592 320
WIRE 176 480 176 352
WIRE 592 480 592 448
WIRE 592 480 176 480
WIRE 176 512 176 480
FLAG 176 512 0
FLAG 592 320 OUT
FLAG 176 240 IN
SYMBOL Misc/signal 176 256 R0
SYMATTR InstName V1
SYMATTR Value PULSE(0 2.3 0 1n 1n 100u 200u)
SYMBOL res 576 160 R0
SYMATTR InstName R1
SYMATTR Value 26
SYMBOL ind 576 352 R0
SYMATTR InstName L1
SYMATTR Value 65µ
TEXT 712 144 Left 2 !.tran 100n 20u 0 2n\n*\n.meas i_final FIND I(L1) AT=20u\n.meas t_tau WHEN I(L1)={i_final*(1-exp(-1))} RISE=1\n.meas t_half WHEN I(L1)={i_final/2} RISE=1\n*\n.meas i_final_mA PARAM {i_final*1000}\n.meas t_tau_us PARAM {t_tau*1e6}\n.meas t_half_us PARAM {t_half*1e6}
