Version 4
SHEET 1 880 680
WIRE 64 128 -16 128
WIRE 224 128 144 128
WIRE -16 176 -16 128
WIRE 224 176 224 128
WIRE -16 240 -16 176
WIRE 224 240 224 176
WIRE -288 288 -496 288
WIRE -80 288 -208 288
WIRE -496 368 -496 288
WIRE -496 496 -496 448
WIRE -16 496 -16 336
WIRE -16 496 -496 496
WIRE 224 496 224 320
WIRE 224 496 -16 496
WIRE -16 528 -16 496
FLAG -16 528 0
FLAG 224 176 CC
FLAG -496 288 IN
FLAG -16 176 OUT
SYMBOL voltage 224 224 R0
SYMATTR InstName V1
SYMATTR Value 12
SYMBOL npn -80 240 R0
SYMATTR InstName Q1
SYMBOL Res 160 112 R90
WINDOW 0 0 56 VBottom 2
WINDOW 3 32 56 VTop 2
SYMATTR InstName R1
SYMATTR Value 1k
SYMBOL Voltage -496 352 R0
WINDOW 3 24 38 Left 2
SYMATTR Value PULSE(0 5 10m 10m 10m 10m 30m 1)
SYMATTR InstName V2
SYMBOL Res -192 272 R90
WINDOW 0 0 56 VBottom 2
WINDOW 3 32 56 VTop 2
SYMATTR InstName R2
SYMATTR Value 10k
TEXT -368 144 Left 2 !.tran 0 50m
