Version 4
SHEET 1 880 680
WIRE 32 128 -16 128
WIRE 128 128 96 128
WIRE 160 128 128 128
WIRE 304 128 240 128
WIRE -16 176 -16 128
WIRE -16 240 -16 176
WIRE 304 256 304 128
WIRE -288 288 -496 288
WIRE -80 288 -208 288
WIRE -496 368 -496 288
WIRE -496 496 -496 448
WIRE -16 496 -16 336
WIRE -16 496 -496 496
WIRE 304 496 304 336
WIRE 304 496 -16 496
WIRE -16 528 -16 496
FLAG -16 528 0
FLAG 304 128 CC
FLAG -496 288 IN
FLAG -16 176 OUT
FLAG 128 128 RC
SYMBOL voltage 304 240 R0
SYMATTR InstName V1
SYMATTR Value 12
SYMBOL npn -80 240 R0
SYMATTR InstName Q1
SYMATTR Value 2N3904
SYMBOL Voltage -496 352 R0
WINDOW 3 24 38 Left 2
SYMATTR Value PULSE(0 3.3 0 1n 1n 25m 50m)
SYMATTR InstName V2
SYMBOL Res -192 272 R90
WINDOW 0 0 56 VBottom 2
WINDOW 3 32 56 VTop 2
SYMATTR InstName R2
SYMATTR Value 2.2k
SYMBOL Res 256 112 R90
WINDOW 0 0 56 VBottom 2
WINDOW 3 32 56 VTop 2
SYMATTR InstName R1
SYMATTR Value 680
SYMBOL LED 96 112 R90
WINDOW 0 0 32 VBottom 2
WINDOW 3 72 32 VTop 2
SYMATTR InstName D1
TEXT -368 144 Left 2 !.tran 0 300m
