Version 4
SHEET 1 880 680
WIRE 272 16 -16 16
WIRE 304 16 272 16
WIRE -16 80 -16 16
WIRE -496 128 -528 128
WIRE -352 128 -496 128
WIRE -80 128 -272 128
WIRE 304 192 304 16
WIRE -16 240 -16 176
WIRE -528 256 -528 128
WIRE -16 368 -16 304
WIRE -528 496 -528 336
WIRE -16 496 -16 448
WIRE -16 496 -528 496
WIRE 304 496 304 272
WIRE 304 496 -16 496
WIRE -16 528 -16 496
FLAG -16 528 0
FLAG -496 128 IN
FLAG 272 16 CC
SYMBOL voltage 304 176 R0
SYMATTR InstName V1
SYMATTR Value 5
SYMBOL Voltage -528 240 R0
WINDOW 3 24 38 Left 2
SYMATTR Value PULSE(0 5 0 1n 1n 25m 50m)
SYMATTR InstName V2
SYMBOL Res -256 112 R90
WINDOW 0 0 56 VBottom 2
WINDOW 3 32 56 VTop 2
SYMATTR InstName R2
SYMATTR Value 2.7k
SYMBOL Res -32 464 M180
WINDOW 0 36 76 Left 2
WINDOW 3 36 40 Left 2
SYMATTR InstName R1
SYMATTR Value 270
SYMBOL LED 0 240 M0
SYMATTR InstName D1
SYMBOL pnp -80 176 M180
SYMATTR InstName Q1
SYMATTR Value 2N3906
TEXT -408 408 Left 2 !.tran 0 300m
