Version 4
SHEET 1 880 680
WIRE -288 96 -304 96
WIRE -256 96 -288 96
WIRE -176 96 -192 96
WIRE -144 96 -176 96
WIRE -304 128 -304 96
WIRE -192 128 -192 96
WIRE 80 160 80 128
WIRE 48 176 -32 176
WIRE 208 192 112 192
WIRE 256 192 208 192
WIRE 48 208 16 208
WIRE 208 224 208 192
WIRE -304 240 -304 208
WIRE -192 240 -192 208
WIRE 80 256 80 224
WIRE -288 304 -304 304
WIRE -256 304 -288 304
WIRE -32 320 -32 176
WIRE 208 320 208 304
WIRE 208 320 -32 320
WIRE -304 336 -304 304
WIRE 208 336 208 320
WIRE -304 448 -304 416
WIRE 208 448 208 416
FLAG -288 96 CC
FLAG -304 240 0
FLAG 80 128 CC
FLAG -176 96 EE
FLAG -192 240 0
FLAG 80 256 EE
FLAG -288 304 IN
FLAG -304 448 0
FLAG 16 208 IN
FLAG 256 192 OUT
FLAG 208 448 0
SYMBOL OpAmps/LM741 80 128 R0
SYMATTR InstName U1
SYMBOL Voltage -304 112 R0
SYMATTR InstName V1
SYMATTR Value 15
SYMBOL Voltage -192 112 R0
SYMATTR InstName V2
SYMATTR Value -15
SYMBOL Voltage -304 320 R0
SYMATTR InstName V3
SYMATTR Value SINE(0 1 1k)
SYMBOL Res 192 208 R0
SYMATTR InstName R1
SYMATTR Value {68k+22k}
SYMBOL Res 192 320 R0
SYMATTR InstName R2
SYMATTR Value 10k
TEXT 272 104 Left 2 !.tran 0 10m
