Version 4
SHEET 1 880 680
WIRE -288 96 -304 96
WIRE -256 96 -288 96
WIRE -176 96 -192 96
WIRE -144 96 -176 96
WIRE -304 128 -304 96
WIRE -192 128 -192 96
WIRE 256 128 192 128
WIRE 368 128 336 128
WIRE 32 192 0 192
WIRE -304 240 -304 208
WIRE -192 240 -192 208
WIRE 256 240 256 208
WIRE 112 256 112 192
WIRE 192 256 192 128
WIRE 192 256 112 256
WIRE 224 256 192 256
WIRE 368 272 368 128
WIRE 368 272 288 272
WIRE 432 272 368 272
WIRE 224 288 192 288
WIRE -288 304 -304 304
WIRE -256 304 -288 304
WIRE -176 304 -192 304
WIRE -144 304 -176 304
WIRE 32 320 0 320
WIRE 112 320 112 256
WIRE -304 336 -304 304
WIRE -192 336 -192 304
WIRE 256 336 256 304
WIRE 192 352 192 288
WIRE -304 448 -304 416
WIRE -192 448 -192 416
FLAG -288 96 CC
FLAG -304 240 0
FLAG 256 208 CC
FLAG -176 96 EE
FLAG -192 240 0
FLAG 256 336 EE
FLAG -288 304 IN1
FLAG -304 448 0
FLAG 432 272 OUT
FLAG 192 352 0
FLAG -176 304 IN2
FLAG -192 448 0
FLAG 0 192 IN1
FLAG 0 320 IN2
SYMBOL OpAmps/LM741 256 208 R0
SYMATTR InstName U1
SYMBOL Voltage -304 112 R0
SYMATTR InstName V1
SYMATTR Value 15
SYMBOL Voltage -192 112 R0
SYMATTR InstName V2
SYMATTR Value -15
SYMBOL Voltage -304 320 R0
SYMATTR InstName V3
SYMATTR Value 1
SYMBOL Res 352 112 R90
WINDOW 0 0 56 VBottom 2
WINDOW 3 32 56 VTop 2
SYMATTR InstName R1
SYMATTR Value 18k
SYMBOL Voltage -192 320 R0
SYMATTR InstName V4
SYMATTR Value SINE(0 0.4 1k)
SYMBOL Res 128 176 R90
WINDOW 0 0 56 VBottom 2
WINDOW 3 32 56 VTop 2
SYMATTR InstName R2
SYMATTR Value 10k
SYMBOL Res 128 304 R90
WINDOW 0 0 56 VBottom 2
WINDOW 3 32 56 VTop 2
SYMATTR InstName R3
SYMATTR Value {3.3k+3.9k}
TEXT 256 424 Left 2 !.tran 0 3m
