Version 4
SHEET 1 880 680
WIRE -288 96 -304 96
WIRE -256 96 -288 96
WIRE -176 96 -192 96
WIRE -144 96 -176 96
WIRE 64 112 32 112
WIRE 176 112 144 112
WIRE -304 128 -304 96
WIRE -192 128 -192 96
WIRE 304 160 304 128
WIRE 176 176 176 112
WIRE 272 176 176 176
WIRE 416 192 336 192
WIRE 464 192 416 192
WIRE 272 208 224 208
WIRE -304 240 -304 208
WIRE -192 240 -192 208
WIRE 64 240 32 240
WIRE 176 240 176 176
WIRE 176 240 144 240
WIRE 416 240 416 192
WIRE 304 256 304 224
WIRE -288 304 -304 304
WIRE -256 304 -288 304
WIRE -176 304 -192 304
WIRE -144 304 -176 304
WIRE -304 336 -304 304
WIRE -192 336 -192 304
WIRE 224 352 224 208
WIRE 416 352 416 320
WIRE 416 352 224 352
WIRE 416 384 416 352
WIRE -304 448 -304 416
WIRE -192 448 -192 416
WIRE 416 496 416 464
FLAG -288 96 CC
FLAG -304 240 0
FLAG 304 256 CC
FLAG -176 96 EE
FLAG -192 240 0
FLAG 304 128 EE
FLAG -288 304 IN1
FLAG -304 448 0
FLAG 464 192 OUT
FLAG -176 304 IN2
FLAG -192 448 0
FLAG 32 112 IN1
FLAG 32 240 IN2
FLAG 416 496 0
SYMBOL OpAmps/LM741 304 256 M180
SYMATTR InstName U1
SYMBOL Voltage -304 112 R0
SYMATTR InstName V1
SYMATTR Value 15
SYMBOL Voltage -192 112 R0
SYMATTR InstName V2
SYMATTR Value -15
SYMBOL Voltage -304 320 R0
SYMATTR InstName V3
SYMATTR Value 1
SYMBOL Voltage -192 320 R0
SYMATTR InstName V4
SYMATTR Value SINE(0 0.5 1k)
SYMBOL Res 48 128 R270
WINDOW 0 32 56 VTop 2
WINDOW 3 0 56 VBottom 2
SYMATTR InstName R1
SYMATTR Value {22k+18k}
SYMBOL Res 48 256 R270
WINDOW 0 32 56 VTop 2
WINDOW 3 0 56 VBottom 2
SYMATTR InstName R2
SYMATTR Value {15k+15k}
SYMBOL Res 400 368 R0
SYMATTR InstName R3
SYMATTR Value 10k
SYMBOL Res 400 224 R0
SYMATTR InstName R4
SYMATTR Value {33k+27k}
TEXT 464 96 Left 2 !.tran 0 3m
