Version 4
SHEET 1 880 680
WIRE -288 96 -304 96
WIRE -256 96 -288 96
WIRE -176 96 -192 96
WIRE -144 96 -176 96
WIRE -304 128 -304 96
WIRE -192 128 -192 96
WIRE 96 128 32 128
WIRE 256 128 176 128
WIRE 368 160 368 128
WIRE 256 176 256 128
WIRE 336 176 256 176
WIRE 464 192 400 192
WIRE 528 192 464 192
WIRE 336 208 304 208
WIRE 464 224 464 192
WIRE -304 240 -304 208
WIRE -192 240 -192 208
WIRE 96 240 32 240
WIRE 256 240 256 176
WIRE 256 240 176 240
WIRE 368 256 368 224
WIRE -288 304 -304 304
WIRE -256 304 -288 304
WIRE -176 304 -192 304
WIRE -144 304 -176 304
WIRE 304 320 304 208
WIRE 464 320 464 304
WIRE 464 320 304 320
WIRE -304 336 -304 304
WIRE -192 336 -192 304
WIRE 464 336 464 320
WIRE -304 448 -304 416
WIRE -192 448 -192 416
WIRE 464 448 464 416
FLAG -288 96 CC
FLAG -304 240 0
FLAG 368 256 CC
FLAG -176 96 EE
FLAG -192 240 0
FLAG 368 128 EE
FLAG -288 304 IN1
FLAG -304 448 0
FLAG 528 192 OUT
FLAG -176 304 IN2
FLAG -192 448 0
FLAG 32 128 IN1
FLAG 32 240 IN2
FLAG 464 448 0
SYMBOL OpAmps/LM741 368 256 M180
SYMATTR InstName U1
SYMBOL Voltage -304 112 R0
SYMATTR InstName V1
SYMATTR Value 15
SYMBOL Voltage -192 112 R0
SYMATTR InstName V2
SYMATTR Value -15
SYMBOL Voltage -304 320 R0
SYMATTR InstName V3
SYMATTR Value 1.65
SYMBOL Voltage -192 320 R0
SYMATTR InstName V4
SYMATTR Value SINE(0 2 100)
SYMBOL Res 192 112 R90
WINDOW 0 0 56 VBottom 2
WINDOW 3 32 56 VTop 2
SYMATTR InstName R1
SYMATTR Value 10k
SYMBOL Res 192 224 R90
WINDOW 0 0 56 VBottom 2
WINDOW 3 32 56 VTop 2
SYMATTR InstName R2
SYMATTR Value 12k
SYMBOL Res 448 320 R0
SYMATTR InstName R3
SYMATTR Value 12k
SYMBOL Res 448 208 R0
SYMATTR InstName R4
SYMATTR Value 10k
TEXT 64 416 Left 2 !.tran 0 50m
