Version 4
SHEET 1 1872 680
WIRE 288 176 176 176
WIRE 464 176 288 176
WIRE 176 272 176 176
WIRE 464 272 464 176
WIRE 176 432 176 352
WIRE 464 432 464 336
WIRE 464 432 176 432
WIRE 176 464 176 432
FLAG 176 464 0
FLAG 288 176 IN
SYMBOL cap 448 272 R0
SYMATTR InstName C1
SYMATTR Value 100µ
SYMBOL Misc/signal 176 256 R0
WINDOW 3 24 104 Invisible 2
WINDOW 123 24 126 Left 2
SYMATTR Value SINE()
SYMATTR Value2 AC 1
SYMATTR InstName V1
TEXT 600 184 Left 2 !.ac dec 50 10 1000
